@<TRIPOS>MOLECULE
*****
 19 18 0 0 0
SMALL
USER_CHARGES

@<TRIPOS>ATOM
      1 N           9.1230  -29.3460  110.6300 N.4     1  LIG11       0.3193
      2 C           5.7220  -28.9150  111.5590 C.3     1  LIG11      -0.0382
      3 C           6.6220  -29.9610  110.9730 C.3     1  LIG11      -0.0107
      4 C           8.0550  -30.0500  111.4110 C.3     1  LIG11      -0.0073
      5 C           5.3690  -27.6950  110.7600 C.3     1  LIG11       0.0450
      6 C           6.3680  -27.1090  109.8060 C.2     1  LIG11       0.3047
      7 O           7.6820  -26.5980  110.3170 O.2     1  LIG11      -0.2510
      8 O           6.0510  -27.0330  108.3420 O.3     1  LIG11      -0.4806
      9 H          10.0296  -29.5132  111.0665 H       1  LIG11       0.2324
     10 H           8.9310  -28.3443  110.6180 H       1  LIG11       0.2324
     11 H           6.1920  -28.5709  112.4566 H       1  LIG11       0.0272
     12 H           4.7858  -29.4236  111.6574 H       1  LIG11       0.0272
     13 H           6.6319  -29.8023  109.9149 H       1  LIG11       0.0317
     14 H           6.1989  -30.8769  111.3295 H       1  LIG11       0.0317
     15 H           8.0975  -29.6651  112.4085 H       1  LIG11       0.0828
     16 H           8.2906  -31.0845  111.2721 H       1  LIG11       0.0828
     17 H           5.1243  -26.9258  111.4623 H       1  LIG11       0.0377
     18 H           4.5868  -28.0398  110.1165 H       1  LIG11       0.0377
     19 H           5.2298  -27.3524  108.0233 H       1  LIG11       0.2951
@<TRIPOS>BOND
     1     1     4    1
     2     2     3    1
     3     2     5    1
     4     3     4    1
     5     5     6    1
     6     6     7    2
     7     6     8    1
     8     1     9    1
     9     1    10    1
    10     2    11    1
    11     2    12    1
    12     3    13    1
    13     3    14    1
    14     4    15    1
    15     4    16    1
    16     5    17    1
    17     5    18    1
    18     8    19    1
