@<TRIPOS>MOLECULE
*****
   19    18     1     0     0
SMALL
bcc


@<TRIPOS>ATOM
      1 N            9.1230   -29.3460   110.6300 n8         1 LIG      -0.913800
      2 C            5.7220   -28.9150   111.5590 c3         1 LIG       0.165600
      3 C1           6.6220   -29.9610   110.9730 c3         1 LIG      -0.167400
      4 C2           8.0550   -30.0500   111.4110 c3         1 LIG       0.134800
      5 C3           5.3690   -27.6950   110.7600 c3         1 LIG      -0.864400
      6 C4           6.3680   -27.1090   109.8060 c          1 LIG       0.190100
      7 O            7.6820   -26.5980   110.3170 o          1 LIG      -0.738000
      8 O1           6.0510   -27.0330   108.3420 oh         1 LIG      -0.751100
      9 H           10.0300   -29.5130   111.0670 hn         1 LIG       0.318800
     10 H1           8.9310   -28.3440   110.6180 hn         1 LIG       0.318800
     11 H2           6.1920   -28.5710   112.4570 hc         1 LIG      -0.064300
     12 H3           4.7860   -29.4240   111.6570 hc         1 LIG      -0.064300
     13 H4           6.6320   -29.8020   109.9150 hc         1 LIG       0.008700
     14 H5           6.1990   -30.8770   111.3290 hc         1 LIG       0.008700
     15 H6           8.0980   -29.6650   112.4090 h1         1 LIG       0.030200
     16 H7           8.2910   -31.0840   111.2720 h1         1 LIG       0.030200
     17 H8           5.1240   -26.9260   111.4620 hc         1 LIG       0.003700
     18 H9           4.5870   -28.0400   110.1170 hc         1 LIG       0.003700
     19 H10          5.2300   -27.3520   108.0230 ho         1 LIG       0.349000
@<TRIPOS>BOND
     1     1     4 1   
     2     2     3 1   
     3     2     5 1   
     4     3     4 1   
     5     5     6 1   
     6     6     7 2   
     7     6     8 1   
     8     1     9 1   
     9     1    10 1   
    10     2    11 1   
    11     2    12 1   
    12     3    13 1   
    13     3    14 1   
    14     4    15 1   
    15     4    16 1   
    16     5    17 1   
    17     5    18 1   
    18     8    19 1   
@<TRIPOS>SUBSTRUCTURE
     1 LIG         1 TEMP              0 ****  ****    0 ROOT
